<?xml version="1.0" encoding="UTF-8"?>

<!-- generated on 2025-05-18 02:24:29.998416 by osmWebWizard.py v1_22_0+0002-63e50f52594
<configuration>
    <net-file value="C:\Users\moham\2025-05-18-02-24-02\osm.net.xml.gz"/>
    <output-trip-file value="C:\Users\moham\2025-05-18-02-24-02\osm.passenger.trips.xml"/>
    <route-file value="C:\Users\moham\2025-05-18-02-24-02\osm.passenger.rou.xml"/>
    <prefix value="veh"/>
    <trip-attributes value="departLane=&quot;best&quot;"/>
    <fringe-start-attributes value="departSpeed=&quot;max&quot;"/>
    <vehicle-class value="passenger"/>
    <lanes value="True"/>
    <fringe-factor value="5"/>
    <allow-fringe.min-length value="1000.0"/>
    <via-edge-types value="highway.motorway,highway.motorway_link,highway.trunk_link,highway.primary_link,highway.secondary_link,highway.tertiary_link"/>
    <min-distance value="300.0"/>
    <min-distance.fringe value="10.0"/>
    <remove-loops value="True"/>
    <validate value="True"/>
    <insertion-density value="12.0"/>
</configuration>
-->

<!-- generated on 2025-05-18 02:24:24 by Eclipse SUMO duarouter Version 1.22.0
<duarouterConfiguration xmlns:xsi="http://www.w3.org/2001/XMLSchema-instance" xsi:noNamespaceSchemaLocation="http://sumo.dlr.de/xsd/duarouterConfiguration.xsd">

    <input>
        <net-file value="C:\Users\moham\2025-05-18-02-24-02\osm.net.xml.gz"/>
        <route-files value="C:\Users\moham\2025-05-18-02-24-02\osm.passenger.trips.xml"/>
    </input>

    <output>
        <output-file value="C:\Users\moham\2025-05-18-02-24-02\osm.passenger.trips.xml.tmp"/>
        <alternatives-output value="NUL"/>
        <write-trips value="true"/>
    </output>

    <processing>
        <remove-loops value="true"/>
    </processing>

    <time>
        <begin value="0.0"/>
        <end value="3600.0"/>
    </time>

    <report>
        <no-warnings value="true"/>
        <ignore-errors value="true"/>
        <no-step-log value="true"/>
    </report>

</duarouterConfiguration>
-->

<routes xmlns:xsi="http://www.w3.org/2001/XMLSchema-instance" xsi:noNamespaceSchemaLocation="http://sumo.dlr.de/xsd/routes_file.xsd">
    <vType id="veh_passenger" vClass="passenger"/>
    <trip id="veh0" type="veh_passenger" depart="0.00" departLane="best" from="153505215#1" to="-150411259#1"/>
    <trip id="veh1" type="veh_passenger" depart="0.66" departLane="best" departSpeed="max" from="-673809466#1" to="-50656060#1"/>
    <trip id="veh2" type="veh_passenger" depart="1.32" departLane="best" departSpeed="max" from="392888031#0" to="288705114#2"/>
    <trip id="veh3" type="veh_passenger" depart="1.99" departLane="best" from="688205898#1" to="-151566375"/>
    <trip id="veh5" type="veh_passenger" depart="3.31" departLane="best" from="-392727311#5" to="-150990472#1"/>
    <trip id="veh6" type="veh_passenger" depart="3.97" departLane="best" from="-150411259#0" to="-392752376#0"/>
    <trip id="veh7" type="veh_passenger" depart="4.63" departLane="best" from="-154286732" to="151566403"/>
    <trip id="veh8" type="veh_passenger" depart="5.30" departLane="best" from="-392727314#2" to="151568062#0"/>
    <trip id="veh9" type="veh_passenger" depart="5.96" departLane="best" from="-673811594#10" to="1056840173"/>
    <trip id="veh10" type="veh_passenger" depart="6.62" departLane="best" from="673798721#4" to="375826059#0"/>
    <trip id="veh11" type="veh_passenger" depart="7.28" departLane="best" from="1020492058#1" to="-153505215#0"/>
    <trip id="veh12" type="veh_passenger" depart="7.94" departLane="best" from="691744062#3" to="1377401846#0"/>
    <trip id="veh13" type="veh_passenger" depart="8.61" departLane="best" from="151566397" to="-151566471#2"/>
    <trip id="veh14" type="veh_passenger" depart="9.27" departLane="best" from="687168998#1" to="-153503437#1"/>
    <trip id="veh15" type="veh_passenger" depart="9.93" departLane="best" from="673802633" to="392888032#1"/>
    <trip id="veh16" type="veh_passenger" depart="10.59" departLane="best" from="150990419#1" to="707313486#4"/>
    <trip id="veh17" type="veh_passenger" depart="11.25" departLane="best" departSpeed="max" from="143170236#0" to="151566444#1"/>
    <trip id="veh18" type="veh_passenger" depart="11.92" departLane="best" from="687441425" to="-151568019#1"/>
    <trip id="veh19" type="veh_passenger" depart="12.58" departLane="best" from="32507671#1" to="-150957624"/>
    <trip id="veh20" type="veh_passenger" depart="13.24" departLane="best" from="-392752392#2" to="-707270660#4"/>
    <trip id="veh21" type="veh_passenger" depart="13.90" departLane="best" from="-151539177#6" to="-51133843#4"/>
    <trip id="veh22" type="veh_passenger" depart="14.56" departLane="best" from="-151566449#0" to="688486727#3"/>
    <trip id="veh23" type="veh_passenger" depart="15.23" departLane="best" departSpeed="max" from="153505210#0" to="149881262#0"/>
    <trip id="veh24" type="veh_passenger" depart="15.89" departLane="best" from="138553882#12" to="-392888031#0"/>
    <trip id="veh25" type="veh_passenger" depart="16.55" departLane="best" from="-673173993" to="690553700"/>
    <trip id="veh26" type="veh_passenger" depart="17.21" departLane="best" departSpeed="max" from="154286728#0" to="153505153"/>
    <trip id="veh27" type="veh_passenger" depart="17.87" departLane="best" from="-153505222#0" to="392888030#8"/>
    <trip id="veh28" type="veh_passenger" depart="18.54" departLane="best" from="-153505196#1" to="149881308#9"/>
    <trip id="veh30" type="veh_passenger" depart="19.86" departLane="best" from="151539177#7" to="32485951#3"/>
    <trip id="veh31" type="veh_passenger" depart="20.52" departLane="best" from="687167315#1" to="51134840#1"/>
    <trip id="veh32" type="veh_passenger" depart="21.18" departLane="best" from="-392888028#1" to="150948580#2"/>
    <trip id="veh33" type="veh_passenger" depart="21.85" departLane="best" departSpeed="max" from="-707346465" to="-674383413#0"/>
    <trip id="veh34" type="veh_passenger" depart="22.51" departLane="best" from="-392727298#2" to="691531947#2"/>
    <trip id="veh35" type="veh_passenger" depart="23.17" departLane="best" from="687675961#12" to="1056840174#0"/>
    <trip id="veh36" type="veh_passenger" depart="23.83" departLane="best" from="154403224#5" to="149966687#3"/>
    <trip id="veh37" type="veh_passenger" depart="24.49" departLane="best" from="688727322#0" to="150948632#12"/>
    <trip id="veh38" type="veh_passenger" depart="25.16" departLane="best" from="666840502" to="-673173990#0"/>
    <trip id="veh39" type="veh_passenger" depart="25.82" departLane="best" from="151566331#4" to="674022887#0"/>
    <trip id="veh40" type="veh_passenger" depart="26.48" departLane="best" departSpeed="max" from="151566503" to="688507067#2"/>
    <trip id="veh41" type="veh_passenger" depart="27.14" departLane="best" from="149881266#1" to="-407637487#0"/>
    <trip id="veh42" type="veh_passenger" depart="27.80" departLane="best" from="93084119#0" to="150990504"/>
    <trip id="veh43" type="veh_passenger" depart="28.46" departLane="best" from="-151566373" to="-150957628#0"/>
    <trip id="veh44" type="veh_passenger" depart="29.13" departLane="best" from="-151566515#0" to="153505220#1"/>
    <trip id="veh45" type="veh_passenger" depart="29.79" departLane="best" from="51392613#2" to="149966753#2"/>
    <trip id="veh47" type="veh_passenger" depart="31.11" departLane="best" from="816110386-AddedOnRampEdge" to="151539174"/>
    <trip id="veh48" type="veh_passenger" depart="31.77" departLane="best" departSpeed="max" from="-1358614042" to="-392752378#3"/>
    <trip id="veh49" type="veh_passenger" depart="32.44" departLane="best" from="-277070672#5" to="151566339"/>
    <trip id="veh50" type="veh_passenger" depart="33.10" departLane="best" from="150948586#0" to="154403224#0"/>
    <trip id="veh51" type="veh_passenger" depart="33.76" departLane="best" from="-151566524#2" to="149966776#0"/>
    <trip id="veh52" type="veh_passenger" depart="34.42" departLane="best" from="149966753#2-AddedOnRampEdge" to="691745198#1"/>
    <trip id="veh53" type="veh_passenger" depart="35.08" departLane="best" from="687675961#11" to="-674022887#4"/>
    <trip id="veh54" type="veh_passenger" depart="35.75" departLane="best" from="150948636#2" to="-276756073#2"/>
    <trip id="veh55" type="veh_passenger" depart="36.41" departLane="best" from="688694174" to="687675961#13"/>
    <trip id="veh56" type="veh_passenger" depart="37.07" departLane="best" departSpeed="max" from="-688671136" to="-154384871#0"/>
    <trip id="veh57" type="veh_passenger" depart="37.73" departLane="best" from="151568056#1" to="-153505210#0"/>
    <trip id="veh58" type="veh_passenger" depart="38.39" departLane="best" from="418297443#0" to="151566353#1"/>
    <trip id="veh59" type="veh_passenger" depart="39.06" departLane="best" from="51133843#3" to="151539177#10"/>
    <trip id="veh60" type="veh_passenger" depart="39.72" departLane="best" from="-149881308#3" to="689773339#2"/>
    <trip id="veh61" type="veh_passenger" depart="40.38" departLane="best" from="687675961#4" to="687167315#0-AddedOnRampEdge"/>
    <trip id="veh62" type="veh_passenger" depart="41.04" departLane="best" from="-691726634#1" to="-150957665"/>
    <trip id="veh63" type="veh_passenger" depart="41.70" departLane="best" from="687675961#3" to="691708258"/>
    <trip id="veh64" type="veh_passenger" depart="42.37" departLane="best" from="-151566342#1" to="150957642#0"/>
    <trip id="veh65" type="veh_passenger" depart="43.03" departLane="best" from="-150990419#1" to="465525786"/>
    <trip id="veh66" type="veh_passenger" depart="43.69" departLane="best" from="478981239#2" to="-151568067#0"/>
    <trip id="veh67" type="veh_passenger" depart="44.35" departLane="best" from="-150411281#4" to="151566433#0"/>
    <trip id="veh68" type="veh_passenger" depart="45.01" departLane="best" from="-673173984" to="687675961#5"/>
    <trip id="veh69" type="veh_passenger" depart="45.68" departLane="best" from="149966687#1" to="392888036#0"/>
    <trip id="veh70" type="veh_passenger" depart="46.34" departLane="best" departSpeed="max" from="150999181" to="392888033"/>
    <trip id="veh71" type="veh_passenger" depart="47.00" departLane="best" departSpeed="max" from="-288705114#2" to="1020490812#2"/>
    <trip id="veh72" type="veh_passenger" depart="47.66" departLane="best" from="816110385" to="154403338#1"/>
    <trip id="veh73" type="veh_passenger" depart="48.32" departLane="best" from="149966695#1" to="-150999204#9"/>
    <trip id="veh74" type="veh_passenger" depart="48.99" departLane="best" from="-151568009#0" to="-50659207"/>
    <trip id="veh75" type="veh_passenger" depart="49.65" departLane="best" from="1020303594#1" to="151568057"/>
    <trip id="veh76" type="veh_passenger" depart="50.31" departLane="best" from="-392888030#4" to="-407637487#6"/>
    <trip id="veh77" type="veh_passenger" depart="50.97" departLane="best" from="-150990472#2" to="153914906#0"/>
    <trip id="veh78" type="veh_passenger" depart="51.63" departLane="best" from="-392888028#0" to="150948634#2"/>
    <trip id="veh80" type="veh_passenger" depart="52.96" departLane="best" from="406998844#11" to="281465016"/>
    <trip id="veh81" type="veh_passenger" depart="53.62" departLane="best" from="-392727301#2" to="-151568080#1"/>
    <trip id="veh82" type="veh_passenger" depart="54.28" departLane="best" from="689773337#1" to="151566548#6"/>
    <trip id="veh83" type="veh_passenger" depart="54.94" departLane="best" from="150411237#0" to="51392612"/>
    <trip id="veh84" type="veh_passenger" depart="55.61" departLane="best" departSpeed="max" from="673809466#0" to="-392727298#7"/>
    <trip id="veh85" type="veh_passenger" depart="56.27" departLane="best" from="-151566428#5" to="149966762#2-AddedOnRampEdge"/>
    <trip id="veh86" type="veh_passenger" depart="56.93" departLane="best" from="149966687#1-AddedOnRampEdge" to="150948633#6-AddedOffRampEdge"/>
    <trip id="veh87" type="veh_passenger" depart="57.59" departLane="best" from="-392752383#0" to="282046035#0"/>
    <trip id="veh88" type="veh_passenger" depart="58.25" departLane="best" from="708939182#0" to="-151566476#2"/>
    <trip id="veh89" type="veh_passenger" depart="58.92" departLane="best" from="149881266#3" to="1377411339"/>
    <trip id="veh90" type="veh_passenger" depart="59.58" departLane="best" from="687441423" to="-673173996#1"/>
    <trip id="veh91" type="veh_passenger" depart="60.24" departLane="best" from="-154403475#2" to="150922681#0"/>
    <trip id="veh93" type="veh_passenger" depart="61.56" departLane="best" from="-51071880#2" to="689222029#4"/>
    <trip id="veh94" type="veh_passenger" depart="62.23" departLane="best" from="149966695#4" to="687669650#1"/>
    <trip id="veh95" type="veh_passenger" depart="62.89" departLane="best" from="150999263#3" to="-150957639#2"/>
    <trip id="veh96" type="veh_passenger" depart="63.55" departLane="best" from="93088689#1" to="687167317#1-AddedOffRampEdge"/>
    <trip id="veh97" type="veh_passenger" depart="64.21" departLane="best" from="707270658#0" to="689233777"/>
    <trip id="veh98" type="veh_passenger" depart="64.87" departLane="best" from="687196294" to="-154403268"/>
    <trip id="veh99" type="veh_passenger" depart="65.54" departLane="best" from="150948587#3" to="-674440852"/>
    <trip id="veh100" type="veh_passenger" depart="66.20" departLane="best" from="149881266#14" to="-150957666#3"/>
    <trip id="veh101" type="veh_passenger" depart="66.86" departLane="best" from="143170236#1" to="708939181#1"/>
    <trip id="veh102" type="veh_passenger" depart="67.52" departLane="best" from="673173985#0" to="51392512#1"/>
    <trip id="veh103" type="veh_passenger" depart="68.18" departLane="best" from="691744062#4" to="816110386"/>
    <trip id="veh104" type="veh_passenger" depart="68.85" departLane="best" from="151539177#10" to="392727314#2"/>
    <trip id="veh105" type="veh_passenger" depart="69.51" departLane="best" from="-153505163" to="-795492950"/>
    <trip id="veh106" type="veh_passenger" depart="70.17" departLane="best" from="707270657#1" to="151568023"/>
    <trip id="veh107" type="veh_passenger" depart="70.83" departLane="best" from="150999191#3-AddedOnRampEdge" to="149380472#1"/>
    <trip id="veh108" type="veh_passenger" depart="71.49" departLane="best" from="-150957662#0" to="151568046#0"/>
    <trip id="veh109" type="veh_passenger" depart="72.16" departLane="best" departSpeed="max" from="150957591" to="687441423"/>
    <trip id="veh110" type="veh_passenger" depart="72.82" departLane="best" from="-153505184#0" to="691991826"/>
    <trip id="veh111" type="veh_passenger" depart="73.48" departLane="best" from="-151539177#8" to="392578521#0"/>
    <trip id="veh112" type="veh_passenger" depart="74.14" departLane="best" from="151566548#3" to="282046037"/>
    <trip id="veh113" type="veh_passenger" depart="74.80" departLane="best" departSpeed="max" from="-404228459#2" to="-151568019#0"/>
    <trip id="veh114" type="veh_passenger" depart="75.47" departLane="best" from="688205550#0" to="-673173987"/>
    <trip id="veh115" type="veh_passenger" depart="76.13" departLane="best" from="151566548#0" to="153505195#1"/>
    <trip id="veh116" type="veh_passenger" depart="76.79" departLane="best" from="149884232#1" to="151568045"/>
    <trip id="veh117" type="veh_passenger" depart="77.45" departLane="best" from="-150957661#4" to="690553700"/>
    <trip id="veh118" type="veh_passenger" depart="78.11" departLane="best" from="-32485964" to="392727311#5"/>
    <trip id="veh119" type="veh_passenger" depart="78.77" departLane="best" from="-406998844#4" to="149966687#3"/>
    <trip id="veh120" type="veh_passenger" depart="79.44" departLane="best" departSpeed="max" from="154403476" to="-93088689#0"/>
    <trip id="veh121" type="veh_passenger" depart="80.10" departLane="best" from="-707360081#1" to="407586499#1"/>
    <trip id="veh122" type="veh_passenger" depart="80.76" departLane="best" departSpeed="max" from="-150990486#4" to="150948632#11"/>
    <trip id="veh123" type="veh_passenger" depart="81.42" departLane="best" departSpeed="max" from="93088689#0" to="816110386-AddedOnRampEdge"/>
    <trip id="veh124" type="veh_passenger" depart="82.08" departLane="best" departSpeed="max" from="-150990498#1" to="-392888037#0"/>
    <trip id="veh125" type="veh_passenger" depart="82.75" departLane="best" from="673173985#0" to="690333980"/>
    <trip id="veh126" type="veh_passenger" depart="83.41" departLane="best" from="149881266#11" to="688204478#1"/>
    <trip id="veh127" type="veh_passenger" depart="84.07" departLane="best" from="138553873#2" to="153505222#0"/>
    <trip id="veh128" type="veh_passenger" depart="84.73" departLane="best" from="683228200#1" to="392727289"/>
    <trip id="veh129" type="veh_passenger" depart="85.39" departLane="best" departSpeed="max" from="151568066#0" to="708958427"/>
    <trip id="veh130" type="veh_passenger" depart="86.06" departLane="best" from="154403224#0" to="-1115965883#1"/>
    <trip id="veh131" type="veh_passenger" depart="86.72" departLane="best" from="32485954#4" to="93084119#2"/>
    <trip id="veh133" type="veh_passenger" depart="88.04" departLane="best" from="151568058#0" to="-151568005#3"/>
    <trip id="veh134" type="veh_passenger" depart="88.70" departLane="best" from="-151566501#4" to="151566449#1"/>
    <trip id="veh135" type="veh_passenger" depart="89.37" departLane="best" from="-673798721#1" to="153505140#0"/>
    <trip id="veh136" type="veh_passenger" depart="90.03" departLane="best" from="392727305#0" to="-392752383#1"/>
    <trip id="veh137" type="veh_passenger" depart="90.69" departLane="best" from="153505204#1" to="-674024626#1"/>
    <trip id="veh138" type="veh_passenger" depart="91.35" departLane="best" from="150948632#1-AddedOffRampEdge" to="150948634#2"/>
    <trip id="veh139" type="veh_passenger" depart="92.01" departLane="best" from="687167317#1-AddedOffRampEdge" to="-151566428#7"/>
    <trip id="veh140" type="veh_passenger" depart="92.68" departLane="best" from="149966687#1-AddedOnRampEdge" to="688215184#1"/>
    <trip id="veh141" type="veh_passenger" depart="93.34" departLane="best" from="1020490811#3" to="51133839"/>
    <trip id="veh142" type="veh_passenger" depart="94.00" departLane="best" from="153505211#2" to="-674022883#0"/>
    <trip id="veh143" type="veh_passenger" depart="94.66" departLane="best" from="39602888#0" to="151566441#1"/>
    <trip id="veh145" type="veh_passenger" depart="95.99" departLane="best" from="-150999204#0" to="688205897"/>
    <trip id="veh146" type="veh_passenger" depart="96.65" departLane="best" from="688490237#1" to="151566407"/>
    <trip id="veh147" type="veh_passenger" depart="97.31" departLane="best" from="683276012#1" to="151568042"/>
    <trip id="veh148" type="veh_passenger" depart="97.97" departLane="best" from="-153503437#1" to="-151568065#1"/>
    <trip id="veh149" type="veh_passenger" depart="98.63" departLane="best" from="691743633#0" to="688512925"/>
    <trip id="veh150" type="veh_passenger" depart="99.30" departLane="best" from="666825728" to="687669650#0"/>
    <trip id="veh151" type="veh_passenger" depart="99.96" departLane="best" from="688438635#1" to="-392888032#1"/>
    <trip id="veh152" type="veh_passenger" depart="100.62" departLane="best" from="51071880#1" to="-151566503"/>
    <trip id="veh153" type="veh_passenger" depart="101.28" departLane="best" from="51134815#3" to="688205898#1"/>
    <trip id="veh155" type="veh_passenger" depart="102.61" departLane="best" departSpeed="max" from="-153505162" to="690028922"/>
    <trip id="veh156" type="veh_passenger" depart="103.27" departLane="best" from="687667138#1" to="707340848"/>
    <trip id="veh157" type="veh_passenger" depart="103.93" departLane="best" from="673811595#0" to="149966696#0"/>
    <trip id="veh158" type="veh_passenger" depart="104.59" departLane="best" from="-149966697#9" to="40279986#1-AddedOnRampEdge"/>
    <trip id="veh159" type="veh_passenger" depart="105.25" departLane="best" departSpeed="max" from="1018547598#0" to="690034082"/>
    <trip id="veh160" type="veh_passenger" depart="105.92" departLane="best" from="673798717#0" to="687674402#0"/>
    <trip id="veh161" type="veh_passenger" depart="106.58" departLane="best" from="673811595#0" to="-674026429#3"/>
    <trip id="veh162" type="veh_passenger" depart="107.24" departLane="best" from="51391970#1" to="151566525#2"/>
    <trip id="veh163" type="veh_passenger" depart="107.90" departLane="best" from="687674408#1" to="-687669640"/>
    <trip id="veh164" type="veh_passenger" depart="108.56" departLane="best" from="392752378#2" to="674024629"/>
    <trip id="veh165" type="veh_passenger" depart="109.23" departLane="best" from="149966759#3" to="-1018547598#1"/>
    <trip id="veh166" type="veh_passenger" depart="109.89" departLane="best" from="-666800494#1" to="-51071747"/>
    <trip id="veh167" type="veh_passenger" depart="110.55" departLane="best" from="-149966697#3" to="-392727306#1"/>
    <trip id="veh168" type="veh_passenger" depart="111.21" departLane="best" from="1015782084#0" to="687674402#0"/>
    <trip id="veh169" type="veh_passenger" depart="111.87" departLane="best" from="707247436#2" to="-688507069#0"/>
    <trip id="veh170" type="veh_passenger" depart="112.54" departLane="best" from="153505221#0" to="149966688#0"/>
    <trip id="veh171" type="veh_passenger" depart="113.20" departLane="best" from="707822823#0" to="151566331#6"/>
    <trip id="veh172" type="veh_passenger" depart="113.86" departLane="best" from="690048568#0" to="-151568005#3"/>
    <trip id="veh173" type="veh_passenger" depart="114.52" departLane="best" from="-707270660#4" to="276756073#10"/>
    <trip id="veh174" type="veh_passenger" depart="115.18" departLane="best" from="691786778#0" to="-674024919#0"/>
    <trip id="veh175" type="veh_passenger" depart="115.85" departLane="best" departSpeed="max" from="-151566506#2" to="149966776#0"/>
    <trip id="veh176" type="veh_passenger" depart="116.51" departLane="best" from="-392752381#1" to="1056073368"/>
    <trip id="veh177" type="veh_passenger" depart="117.17" departLane="best" from="151568042" to="150999182#2"/>
    <trip id="veh178" type="veh_passenger" depart="117.83" departLane="best" from="149813592#2-AddedOffRampEdge" to="-151568014#0"/>
    <trip id="veh179" type="veh_passenger" depart="118.49" departLane="best" from="-51133843#3" to="392727298#8"/>
    <trip id="veh180" type="veh_passenger" depart="119.16" departLane="best" from="-1015782090#0" to="689233777"/>
    <trip id="veh181" type="veh_passenger" depart="119.82" departLane="best" from="150990502#0" to="392752376#2"/>
    <trip id="veh182" type="veh_passenger" depart="120.48" departLane="best" from="39602888#1" to="282046033#2"/>
    <trip id="veh183" type="veh_passenger" depart="121.14" departLane="best" from="1382210069#1" to="-150990472#0"/>
    <trip id="veh184" type="veh_passenger" depart="121.80" departLane="best" from="154403352#0" to="1307740854"/>
    <trip id="veh185" type="veh_passenger" depart="122.47" departLane="best" from="282046033#8" to="687375096"/>
    <trip id="veh186" type="veh_passenger" depart="123.13" departLane="best" from="-392727311#1" to="-93088689#0"/>
    <trip id="veh187" type="veh_passenger" depart="123.79" departLane="best" from="691745198#2" to="149966695#12"/>
    <trip id="veh188" type="veh_passenger" depart="124.45" departLane="best" from="149881266#3" to="-709654242"/>
    <trip id="veh189" type="veh_passenger" depart="125.11" departLane="best" departSpeed="max" from="-151568041" to="149966728#2"/>
    <trip id="veh190" type="veh_passenger" depart="125.78" departLane="best" departSpeed="max" from="690553697" to="288705114#2"/>
    <trip id="veh191" type="veh_passenger" depart="126.44" departLane="best" from="688486727#3" to="153505187#2"/>
    <trip id="veh192" type="veh_passenger" depart="127.10" departLane="best" from="-689773339#3" to="151566428#0"/>
    <trip id="veh193" type="veh_passenger" depart="127.76" departLane="best" departSpeed="max" from="-1015782082#1" to="-691998705"/>
    <trip id="veh194" type="veh_passenger" depart="128.42" departLane="best" departSpeed="max" from="149966690#0" to="151568029"/>
    <trip id="veh195" type="veh_passenger" depart="129.09" departLane="best" from="154403224#2" to="150948633#4"/>
    <trip id="veh196" type="veh_passenger" depart="129.75" departLane="best" from="150411238" to="688683654"/>
    <trip id="veh197" type="veh_passenger" depart="130.41" departLane="best" from="666818455#0" to="-154403368"/>
    <trip id="veh198" type="veh_passenger" depart="131.07" departLane="best" from="151566331#7" to="150999191#5"/>
    <trip id="veh199" type="veh_passenger" depart="131.73" departLane="best" from="153505196#2" to="1358614042"/>
    <trip id="veh200" type="veh_passenger" depart="132.39" departLane="best" from="673856565#8-AddedOnRampEdge" to="406998844#9"/>
    <trip id="veh201" type="veh_passenger" depart="133.06" departLane="best" from="154403497#1" to="-50659207"/>
    <trip id="veh202" type="veh_passenger" depart="133.72" departLane="best" departSpeed="max" from="-281465016" to="-150411237#1"/>
    <trip id="veh203" type="veh_passenger" depart="134.38" departLane="best" departSpeed="max" from="-420027984#5" to="150957605"/>
    <trip id="veh204" type="veh_passenger" depart="135.04" departLane="best" from="687215292" to="-150999204#0"/>
    <trip id="veh205" type="veh_passenger" depart="135.70" departLane="best" from="149881347#3" to="153528100#0"/>
    <trip id="veh206" type="veh_passenger" depart="136.37" departLane="best" departSpeed="max" from="-263435074" to="32507696#5"/>
    <trip id="veh207" type="veh_passenger" depart="137.03" departLane="best" from="150948633#1" to="-547935488#1"/>
    <trip id="veh208" type="veh_passenger" depart="137.69" departLane="best" departSpeed="max" from="154403268" to="151566543#2"/>
    <trip id="veh209" type="veh_passenger" depart="138.35" departLane="best" from="404230184#1" to="-51133836#1"/>
    <trip id="veh210" type="veh_passenger" depart="139.01" departLane="best" from="151566501#1" to="149966758#2"/>
    <trip id="veh211" type="veh_passenger" depart="139.68" departLane="best" departSpeed="max" from="-154286729#1" to="691786777"/>
    <trip id="veh212" type="veh_passenger" depart="140.34" departLane="best" from="150957642#1" to="-150957639#0"/>
    <trip id="veh213" type="veh_passenger" depart="141.00" departLane="best" from="-51071745#2" to="687375096"/>
    <trip id="veh214" type="veh_passenger" depart="141.66" departLane="best" from="149966758#2" to="-673811594#6"/>
    <trip id="veh215" type="veh_passenger" depart="142.32" departLane="best" departSpeed="max" from="154403389#0" to="708958431"/>
    <trip id="veh216" type="veh_passenger" depart="142.99" departLane="best" from="151566548#6" to="691743625"/>
    <trip id="veh217" type="veh_passenger" depart="143.65" departLane="best" from="688205897" to="153505176"/>
    <trip id="veh218" type="veh_passenger" depart="144.31" departLane="best" from="392727309#3" to="150990502#2"/>
    <trip id="veh219" type="veh_passenger" depart="144.97" departLane="best" departSpeed="max" from="674386730#0" to="151566428#0"/>
    <trip id="veh220" type="veh_passenger" depart="145.63" departLane="best" departSpeed="max" from="688436792#0" to="404230184#0"/>
    <trip id="veh221" type="veh_passenger" depart="146.30" departLane="best" from="150411281#0" to="-673822486"/>
    <trip id="veh222" type="veh_passenger" depart="146.96" departLane="best" departSpeed="max" from="-50658226#1" to="154384844"/>
    <trip id="veh223" type="veh_passenger" depart="147.62" departLane="best" from="478981239#2" to="150999263#1"/>
    <trip id="veh224" type="veh_passenger" depart="148.28" departLane="best" from="153505147" to="-686163623#0"/>
    <trip id="veh225" type="veh_passenger" depart="148.94" departLane="best" from="151539170" to="-691743633#1"/>
    <trip id="veh226" type="veh_passenger" depart="149.61" departLane="best" from="-673798719#1" to="1115734377"/>
    <trip id="veh227" type="veh_passenger" depart="150.27" departLane="best" departSpeed="max" from="150999181" to="153503373"/>
    <trip id="veh228" type="veh_passenger" depart="150.93" departLane="best" from="-392888032#0" to="32485981"/>
    <trip id="veh229" type="veh_passenger" depart="151.59" departLane="best" from="32507696#0" to="-150957682#3"/>
    <trip id="veh230" type="veh_passenger" depart="152.25" departLane="best" from="149881308#6" to="-151566375"/>
    <trip id="veh232" type="veh_passenger" depart="153.58" departLane="best" from="149884237#2" to="688727321"/>
    <trip id="veh233" type="veh_passenger" depart="154.24" departLane="best" departSpeed="max" from="151566503" to="32507696#0"/>
    <trip id="veh234" type="veh_passenger" depart="154.90" departLane="best" from="687375096" to="51071745#1"/>
    <trip id="veh235" type="veh_passenger" depart="155.56" departLane="best" from="143170236#2" to="1056840171#0"/>
    <trip id="veh236" type="veh_passenger" depart="156.23" departLane="best" from="1300683188#1-AddedOnRampEdge" to="407637484#2"/>
    <trip id="veh237" type="veh_passenger" depart="156.89" departLane="best" from="687371746" to="691744063"/>
    <trip id="veh238" type="veh_passenger" depart="157.55" departLane="best" from="149884232#1" to="404860068#0"/>
    <trip id="veh239" type="veh_passenger" depart="158.21" departLane="best" from="150999208" to="153503427"/>
    <trip id="veh240" type="veh_passenger" depart="158.87" departLane="best" from="-392752375#0" to="-407637487#1"/>
    <trip id="veh241" type="veh_passenger" depart="159.54" departLane="best" from="149966693#2" to="-150922667#1"/>
    <trip id="veh242" type="veh_passenger" depart="160.20" departLane="best" from="1019724850#1" to="-32223967#0"/>